*load regulation
.include AE01005035_01.cir
.param VSOURCE=5
.param ILOAD=0.05
.param REN=100K
.dc I1 0 {ILOAD} 100n
.backanno
.op

